43
 energy: -70.666464373986 gnorm: 0.000183346942 xtb: 6.4.1 (conda-forge)
Fe        0.00000000000000    0.00000000000000    0.00000000000000
O         0.00000000000000    2.13708900000000    0.00000000000000
C         0.81423570713278    2.77601432747851   -0.72094010486119
C         0.33735030627222    4.10422486465144   -1.31083543334440
C         2.11162971739711    2.37192364506319   -1.05313924384272
C         2.65376323037910    1.11792020207050   -0.73080780094763
O         2.12314900000000    0.24369200000000    0.00000000000000
C         4.00722994035373    0.78864366730050   -1.36139359606426
H        -0.73595315444110    4.19425404046041   -1.16464031098473
H         0.56710762235372    4.15882730801085   -2.37294565859646
H         0.83496477537044    4.93256232863000   -0.80714178735830
H         4.72381750200785    1.58560379696036   -1.17029308879080
H         3.89128037037510    0.67651836317459   -2.43785932604947
H         4.37735794855666   -0.14489210621904   -0.94667520999496
H         2.69564807389676    3.02503821216745   -1.68788318326918
O         0.00000000000000   -2.13708900000000    0.00000000000000
C        -0.60380342706017   -2.77854009490548    0.89736588229358
C        -1.12231209997819   -4.17202388869400    0.53335811489802
C        -0.88317474935321   -2.34488006509931    2.19948871224759
C        -0.63339558150903   -1.05853801925020    2.70169322654743
O         0.00000000000000   -0.13585000000000    2.13276700000000
C        -1.21783342623423   -0.76157188631678    4.08456472220826
H        -0.81745615138166   -4.41325189252513   -0.48135580536606
H        -2.20877059962370   -4.19179886691037    0.59460102468527
H        -0.72296874962781   -4.91646074882957    1.22010570129538
H        -0.89835768525640   -1.51310365612020    4.80432469894718
H        -2.30491395410239   -0.77079559335401    4.03286577487043
H        -0.88565808164222    0.22050437945794    4.40966646574829
H        -1.42996119240540   -3.02618607173420    2.83860523674923
O        -2.13708900000000    0.00000000000000    0.00000000000000
C        -2.74281938538522    0.59745358643839   -0.93001094582413
C        -4.13812466292925    1.13940538665754   -0.61360856293861
C        -2.27783074089282    0.84588070847589   -2.22903167578899
C        -0.98539241209156    0.60372996852490   -2.72201516839874
O        -0.04805500000000    0.00000000000000   -2.13654900000000
C        -0.68648591950656    1.18006969320170   -4.10723796879013
H        -4.39993003912023    0.87517946566690    0.40740247270442
H        -4.87273548677687    0.71756198540080   -1.29791173784662
H        -4.15094465369844    2.22266729616208   -0.71689426162858
H        -1.41165637054734    0.82061522666077   -4.83529947863135
H         0.31331545832247    0.88061410713416   -4.41026647004086
H        -0.73812518786604    2.26701595143636   -4.07524261645196
H        -2.95124086768389    1.38046481528250   -2.88746862298093
